LAMMPS (23 Jun 2022 - Update 1)
Loaded 1 plugins from C:\Users\HP\AppData\Local\LAMMPS 64-bit 23Jun2022\plugins
# Initialization
units			real
dimension		3
processors		* * *
boundary		p p p
atom_style		full
pair_style		lj/cut 10.0
bond_style		harmonic
angle_style 	harmonic
read_data		after_cross_linking_correct.data
Reading data file ...
  orthogonal box = (30.222448 27.307948 30.19145) to (59.884552 56.970052 59.853554)
  reading atoms ...
  2988 atoms
  reading velocities ...
  2988 velocities
  scanning bonds ...
  scanning angles ...
  reading bonds ...
  3044 bonds
  reading angles ...
  5800 angles
Finding 1-2 1-3 1-4 neighbors ...
     4 = max # of 1-2 neighbors
     7 = max # of 1-3 neighbors
    16 = max # of 1-4 neighbors
    20 = max # of special neighbors

#output

# going from 0-70 in steps of 10

thermo			100
thermo_style	custom step temp vol density

# npt for 150ps
fix			1 all npt temp 273 273 1000 iso 1 1 100
run			150000
Generated 153 of 153 mixed pair_coeff terms from geometric mixing rule
  update every 1 steps, delay 10 steps, check yes
Step          Temp          Volume        Density
0   296.64116      26097.918      1.2032419
Averages over the last 751 of 1501 rows, steps 75000 to 150000:
Temp Volume Density
272.104 25928 1.21116
Loop time of 2335.44 on 1 procs for 150000 steps with 2988 atoms

unfix			1

fix			1 all npt temp 283 283 1000 iso 1 1 100
run			150000
Generated 153 of 153 mixed pair_coeff terms from geometric mixing rule
Step          Temp          Volume        Density
150000   273.38641      26061.21       1.2049367
Averages over the last 751 of 1501 rows, steps 225000 to 300000:
Temp Volume Density
283.136 25982.7 1.20861
Loop time of 2352.88 on 1 procs for 150000 steps with 2988 atoms

unfix			1

fix			1 all npt temp 293 293 1000 iso 1 1 100
run			150000
Generated 153 of 153 mixed pair_coeff terms from geometric mixing rule
Step          Temp          Volume        Density
300000   283.97781      25969.833      1.2091763
Averages over the last 751 of 1501 rows, steps 375000 to 450000:
Temp Volume Density
292.882 26202.1 1.1985
Loop time of 2312.25 on 1 procs for 150000 steps with 2988 atoms

unfix			1

fix			1 all npt temp 303 303 1000 iso 1 1 100
run			150000
Generated 153 of 153 mixed pair_coeff terms from geometric mixing rule
Step          Temp          Volume        Density
450000   291.83064      26372.089      1.1907326
Averages over the last 751 of 1501 rows, steps 525000 to 600000:
Temp Volume Density
302.836 26348.7 1.19183
Loop time of 2328.5 on 1 procs for 150000 steps with 2988 atoms

unfix			1

fix			1 all npt temp 313 313 100 iso 1 1 100
run			150000
Generated 153 of 153 mixed pair_coeff terms from geometric mixing rule
Step          Temp          Volume        Density
600000   302.17141      26459.069      1.1868183
Averages over the last 751 of 1501 rows, steps 675000 to 750000:
Temp Volume Density
312.936 26504.9 1.18482
Loop time of 2343.71 on 1 procs for 150000 steps with 2988 atoms

unfix			1
fix			1 all npt temp 323 323 100 iso 1 1 100
run			150000
Generated 153 of 153 mixed pair_coeff terms from geometric mixing rule
Step          Temp          Volume        Density
750000   307.65717      26837.733      1.170073
Averages over the last 751 of 1501 rows, steps 825000 to 900000:
Temp Volume Density
322.927 26596.5 1.18073
Loop time of 2356.78 on 1 procs for 150000 steps with 2988 atoms

unfix			1
fix			1 all npt temp 333 333 100 iso 1 1 100
run			150000
Generated 153 of 153 mixed pair_coeff terms from geometric mixing rule
Step          Temp          Volume        Density
900000   319.44021      26950.01       1.1651984
Averages over the last 751 of 1501 rows, steps 975000 to 1050000:
Temp Volume Density
333.356 26617.7 1.1798
Loop time of 2264.9 on 1 procs for 150000 steps with 2988 atoms

unfix			1
fix			1 all npt temp 343 343 100 iso 1 1 100
run			150000
Generated 153 of 153 mixed pair_coeff terms from geometric mixing rule
Step          Temp          Volume        Density
1050000   327.99676      26559.229      1.1823426
Averages over the last 751 of 1501 rows, steps 1125000 to 1200000:
Temp Volume Density
342.981 26533.6 1.18354
Loop time of 2271.94 on 1 procs for 150000 steps with 2988 atoms

unfix			1
#final
write_data		thermal_expansion_before_glass_transition.data
System init for write_data ...
Generated 153 of 153 mixed pair_coeff terms from geometric mixing rule

#parameter
neighbor		2.0 bin
