LAMMPS (23 Jun 2022 - Update 1)
Loaded 1 plugins from C:\Users\HP\AppData\Local\LAMMPS 64-bit 23Jun2022\plugins
# Initialization
units			real
dimension		3
processors		* * *
boundary		p p p
atom_style		full
pair_style		lj/cut 10.0
bond_style		harmonic
angle_style 	harmonic
read_data		PVA4_O10.data
Reading data file ...
  orthogonal box = (-2.047001 -5.388001 -5.213) to (97.952999 94.611999 94.787)
  reading atoms ...
  2828 atoms
  scanning bonds ...
  scanning angles ...
  reading bonds ...
  2814 bonds
  reading angles ...
  5200 angles
Finding 1-2 1-3 1-4 neighbors ...
     4 = max # of 1-2 neighbors
     7 = max # of 1-3 neighbors
    14 = max # of 1-4 neighbors
    18 = max # of special neighbors

#output

thermo			100
thermo_style	custom step temp pe press vol lx density

#intial minimization
minimize		1.0e-5 1.0e-5 10000 10000
Generated 45 of 45 mixed pair_coeff terms from geometric mixing rule
  update every 1 steps, delay 0 steps, check yes
Step          Temp          PotEng         Press          Volume           Lx          Density
0   0              2295.5087     -532.12708      1000000        100            0.029805125
Averages over the last 26 of 51 rows, steps 2500 to 5000:
Temp PotEng Press Volume Lx Density
0 -495.982 -4.21014 1e+06 100 0.0298051
Loop time of 34.7213 on 1 procs for 5000 steps with 2828 atoms

Minimization stats:
  Stopping criterion = max force evaluations
  Energy initial, next-to-last, final =
  Force two-norm initial, final = 1913.5169 5.7378667
  Force max component initial, final = 122.69172 1.3976196
  Final line search alpha, max atom move = 0.01234464 0.017253111
  Iterations, force evaluations = 5000 10001

timestep 1
# nvt for 200 ps
fix			1 all nvt temp 300 300 100
run			200000
Generated 45 of 45 mixed pair_coeff terms from geometric mixing rule
Step          Temp          PotEng         Press          Volume           Lx          Density
5000   0             -525.63115     -3.469804       1000000        100            0.029805125
Averages over the last 1001 of 2001 rows, steps 105000 to 205000:
Temp PotEng Press Volume Lx Density
300.004 1169.62 -1.19431 1e+06 100 0.0298051
Loop time of 1584.13 on 1 procs for 200000 steps with 2828 atoms

unfix			1

# npt for 1000ps
fix			1 all npt temp 300 300 100 iso 1 1 100
run			1000000
Generated 45 of 45 mixed pair_coeff terms from geometric mixing rule
Step          Temp          PotEng         Press          Volume           Lx          Density
205000   310.39198      1180.5179     -9.4479063      1000000        100            0.029805125
Averages over the last 5001 of 10001 rows, steps 705000 to 1205000:
Temp PotEng Press Volume Lx Density
299.955 729.304 10.7347 25567 29.4593 1.16585
Loop time of 14227.8 on 1 procs for 1000000 steps with 2828 atoms

unfix			1
#final
write_data		PVA4_O10_equilibrated.data
System init for write_data ...
Generated 45 of 45 mixed pair_coeff terms from geometric mixing rule

#parameter
neighbor		2.0 bin
