LAMMPS (23 Jun 2022)
# Initialization
units			real
dimension		3
processors		* * *
boundary		p p p
atom_style		full
pair_style		lj/cut 10.0
bond_style		harmonic
angle_style 	harmonic
read_data		crosslinked.data
Reading data file ...
  orthogonal box = (29.81742 26.90292 29.786422) to (60.28958 57.37508 60.258582)
  reading atoms ...
  2997 atoms
  scanning bonds ...
  scanning angles ...
  reading bonds ...
  3049 bonds
  reading angles ...
  5799 angles
Finding 1-2 1-3 1-4 neighbors ...
     4 = max # of 1-2 neighbors
     7 = max # of 1-3 neighbors
    16 = max # of 1-4 neighbors
    20 = max # of special neighbors

#output

thermo			100
thermo_style	custom step temp pe press vol lx density
dump			1 all custom 100 after_cross_linking_latest_1.lammpstrj id type x y z

#intial minimization
minimize		1.0e-5 1.0e-5 10000 10000
Generated 153 of 153 mixed pair_coeff terms from geometric mixing rule
  update every 1 steps, delay 0 steps, check yes
Step          Temp          PotEng         Press          Volume           Lx          Density
0   0              253108.01     -588148.07      28294.999      30.472159      1.112983
Averages over the last 11 of 21 rows, steps 1000 to 1996:
Temp PotEng Press Volume Lx Density
0 -1168.94 -2946 28295 30.4722 1.11298
Loop time of 48.3095 on 1 procs for 1996 steps with 2997 atoms

Minimization stats:
  Stopping criterion = energy tolerance
  Energy initial, next-to-last, final =
  Force two-norm initial, final = 29894.723 4.5306102
  Force max component initial, final = 4041.8202 1.3945948
  Final line search alpha, max atom move = 0.019113161 0.026655115
  Iterations, force evaluations = 1996 3915

timestep 1
# nvt for 500 ps
fix			1 all nvt temp 300 300 100
run			500000
Generated 153 of 153 mixed pair_coeff terms from geometric mixing rule
Step          Temp          PotEng         Press          Volume           Lx          Density
1996   0             -1187.4495     -2985.3459      28294.999      30.472159      1.112983
Averages over the last 2501 of 5002 rows, steps 252000 to 501996:
Temp PotEng Press Volume Lx Density
299.898 1218.55 -1604.67 28295 30.4722 1.11298
Loop time of 4265.19 on 1 procs for 500000 steps with 2997 atoms

unfix			1

# npt for 250ps
fix			1 all npt temp 300 300 100 iso 1 1 100
run			250000
Generated 153 of 153 mixed pair_coeff terms from geometric mixing rule
Step          Temp          PotEng         Press          Volume           Lx          Density
501996   296.45772      1206.5438     -661.54545      28294.999      30.472159      1.112983
Averages over the last 1251 of 2502 rows, steps 627000 to 751996:
Temp PotEng Press Volume Lx Density
300.102 1108.83 -30.7277 26655.4 29.8717 1.18148
Loop time of 2649.32 on 1 procs for 250000 steps with 2997 atoms

unfix			1
#final
write_data		after_cross_linking_latest_1.data
System init for write_data ...
Generated 153 of 153 mixed pair_coeff terms from geometric mixing rule

#parameter
neighbor		2.0 bin
