units			real
dimension		3
processors		* * *
boundary		p p p
atom_style		full
pair_style		lj/cut 10.0
bond_style		harmonic
angle_style 	harmonic
read_data		crosslinked.data
Reading data file ...
  orthogonal box = (29.738884 26.824384 29.707886) to (60.368116 57.453616 60.337118)
  reading atoms ...
  2997 atoms
  scanning bonds ...
  scanning angles ...
  reading bonds ...
  3050 bonds
  reading angles ...
  5803 angles
Finding 1-2 1-3 1-4 neighbors ...
     4 = max # of 1-2 neighbors
     7 = max # of 1-3 neighbors
    16 = max # of 1-4 neighbors
    20 = max # of special neighbors

#output

thermo			100
thermo_style	custom step temp density

#intial minimization
minimize		1.0e-5 1.0e-5 10000 10000
Generated 153 of 153 mixed pair_coeff terms from geometric mixing rule
  update every 1 steps, delay 0 steps, check yes
Step          Temp         Density
0   0              1.0959479
Averages over the last 10 of 20 rows, steps 1000 to 1899:
Temp Density
0 1.09595
Loop time of 107.32 on 1 procs for 1899 steps with 2997 atoms

Minimization stats:
  Stopping criterion = energy tolerance
  Energy initial, next-to-last, final =
  Force two-norm initial, final = 28782.963 4.3459271
  Force max component initial, final = 4144.4888 1.03182
  Final line search alpha, max atom move = 0.027411232 0.028283457
  Iterations, force evaluations = 1899 3703

timestep 1
# nvt for 500 ps
fix			1 all nvt temp 300 300 100
run			500000
Generated 153 of 153 mixed pair_coeff terms from geometric mixing rule
Step          Temp         Density
1899   0              1.0959479
Averages over the last 2501 of 5002 rows, steps 251900 to 501899:
Temp Density
300.138 1.09595
Loop time of 7095.69 on 1 procs for 500000 steps with 2997 atoms

unfix			1

# npt for 250ps
fix			1 all npt temp 300 300 100 iso 1 1 100
run			250000
Generated 153 of 153 mixed pair_coeff terms from geometric mixing rule
Step          Temp         Density
501899   298.69165      1.0959479
Averages over the last 1251 of 2502 rows, steps 626900 to 751899:
Temp Density
299.904 1.20484
Loop time of 3947.71 on 1 procs for 250000 steps with 2997 atoms

unfix			1
#final
write_data		after_cross_linking_2.data
System init for write_data ...
Generated 153 of 153 mixed pair_coeff terms from geometric mixing rule

#parameter
neighbor		2.0 bin
