LAMMPS (23 Jun 2022 - Update 1)
Loaded 1 plugins from C:\Users\HP\AppData\Local\LAMMPS 64-bit 23Jun2022\plugins
package omp 0
using multi-threaded neighbor list subroutines
package omp 8
set 8 OpenMP thread(s) per MPI task
using multi-threaded neighbor list subroutines
# Initialization
units			real
dimension		3
processors		* * *
boundary		p p p
atom_style		full
pair_style		lj/cut 10.0
bond_style		harmonic
angle_style 	harmonic
read_data		after_cross_linking_correct.data
Reading data file ...
  orthogonal box = (30.222448 27.307948 30.19145) to (59.884552 56.970052 59.853554)
  reading atoms ...
  2988 atoms
  reading velocities ...
  2988 velocities
  scanning bonds ...
  scanning angles ...
  reading bonds ...
  3044 bonds
  reading angles ...
  5800 angles
Finding 1-2 1-3 1-4 neighbors ...
     4 = max # of 1-2 neighbors
     7 = max # of 1-3 neighbors
    16 = max # of 1-4 neighbors
    20 = max # of special neighbors

#output

# going from 100-170 in steps of 10

thermo			100
thermo_style	custom step temp vol density

# npt for 150ps

fix			1 all npt temp 373 373 1000 iso 1 1 100
run			150000
Generated 153 of 153 mixed pair_coeff terms from geometric mixing rule
Last active /omp style is angle_style harmonic/omp
  update every 1 steps, delay 10 steps, check yes
Step          Temp          Volume        Density
0   296.64116      26097.918      1.2032419
Averages over the last 751 of 1501 rows, steps 75000 to 150000:
Temp Volume Density
372.788 26989.1 1.16357
Loop time of 1106.5 on 8 procs for 150000 steps with 2988 atoms

unfix			1

fix			1 all npt temp 383 383 1000 iso 1 1 100
run			150000
Generated 153 of 153 mixed pair_coeff terms from geometric mixing rule
Last active /omp style is angle_style harmonic/omp
Step          Temp          Volume        Density
150000   373.1361       26796.61       1.1718687
Averages over the last 751 of 1501 rows, steps 225000 to 300000:
Temp Volume Density
381.831 27108.4 1.15845
Loop time of 1081.46 on 8 procs for 150000 steps with 2988 atoms

unfix			1

fix			1 all npt temp 393 393 1000 iso 1 1 100
run			150000
Generated 153 of 153 mixed pair_coeff terms from geometric mixing rule
Last active /omp style is angle_style harmonic/omp
Step          Temp          Volume        Density
300000   379.19052      27425.907      1.1449797
Averages over the last 751 of 1501 rows, steps 375000 to 450000:
Temp Volume Density
393.164 27222.5 1.15361
Loop time of 996.966 on 8 procs for 150000 steps with 2988 atoms

unfix			1

fix			1 all npt temp 403 403 1000 iso 1 1 100
run			150000
Generated 153 of 153 mixed pair_coeff terms from geometric mixing rule
Last active /omp style is angle_style harmonic/omp
Step          Temp          Volume        Density
450000   384.79928      27307.749      1.1499339
Averages over the last 751 of 1501 rows, steps 525000 to 600000:
Temp Volume Density
404.528 27123.5 1.15782
Loop time of 984.65 on 8 procs for 150000 steps with 2988 atoms

unfix			1

fix			1 all npt temp 413 413 1000 iso 1 1 100
run			150000
Generated 153 of 153 mixed pair_coeff terms from geometric mixing rule
Last active /omp style is angle_style harmonic/omp
Step          Temp          Volume        Density
600000   417.11307      27010.297      1.1625976
Averages over the last 751 of 1501 rows, steps 675000 to 750000:
Temp Volume Density
413.024 27194.4 1.15482
Loop time of 1012.94 on 8 procs for 150000 steps with 2988 atoms

unfix			1

fix			1 all npt temp 423 423 1000 iso 1 1 100
run			150000
Generated 153 of 153 mixed pair_coeff terms from geometric mixing rule
Last active /omp style is angle_style harmonic/omp
Step          Temp          Volume        Density
750000   408.6599       27404.375      1.1458794
Averages over the last 751 of 1501 rows, steps 825000 to 900000:
Temp Volume Density
422.629 27001.5 1.16304
Loop time of 1108.06 on 8 procs for 150000 steps with 2988 atoms

unfix			1

fix			1 all npt temp 433 433 1000 iso 1 1 100
run			150000
Generated 153 of 153 mixed pair_coeff terms from geometric mixing rule
Last active /omp style is angle_style harmonic/omp
Step          Temp          Volume        Density
900000   425.5293       26993.018      1.1633418
Averages over the last 751 of 1501 rows, steps 975000 to 1050000:
Temp Volume Density
434.059 27311.7 1.14985
Loop time of 1042.81 on 8 procs for 150000 steps with 2988 atoms

unfix			1

fix			1 all npt temp 443 443 1000 iso 1 1 100
run			150000
Generated 153 of 153 mixed pair_coeff terms from geometric mixing rule
Last active /omp style is angle_style harmonic/omp
Step          Temp          Volume        Density
1050000   428.89887      27587.741      1.1382631
Averages over the last 751 of 1501 rows, steps 1125000 to 1200000:
Temp Volume Density
440.2 27337 1.14878
Loop time of 1157.56 on 8 procs for 150000 steps with 2988 atoms

unfix			1

#final
write_data		thermal_expansion_after_glass_transition_2.data
System init for write_data ...
Generated 153 of 153 mixed pair_coeff terms from geometric mixing rule
Last active /omp style is angle_style harmonic/omp

#parameter
neighbor		2.0 bin
