LAMMPS (23 Jun 2022 - Update 1)
Loaded 1 plugins from C:\Users\HP\AppData\Local\LAMMPS 64-bit 23Jun2022\plugins
# Initialization
units			real
dimension		3
processors		* * *
boundary		p p p
atom_style		full
pair_style		lj/cut 10.0
bond_style		harmonic
angle_style 	harmonic
read_data		after_cross_linking_correct.data
Reading data file ...
  orthogonal box = (30.222448 27.307948 30.19145) to (59.884552 56.970052 59.853554)
  reading atoms ...
  2988 atoms
  reading velocities ...
  2988 velocities
  scanning bonds ...
  scanning angles ...
  reading bonds ...
  3044 bonds
  reading angles ...
  5800 angles
Finding 1-2 1-3 1-4 neighbors ...
     4 = max # of 1-2 neighbors
     7 = max # of 1-3 neighbors
    16 = max # of 1-4 neighbors
    20 = max # of special neighbors

#output

# going from 100-170 in steps of 10

thermo			100
thermo_style	custom step temp vol density

# npt for 150ps
fix			1 all npt temp 373 373 1000 iso 1 1 100
run			150000
Generated 153 of 153 mixed pair_coeff terms from geometric mixing rule
  update every 1 steps, delay 10 steps, check yes
Step          Temp          Volume        Density
0   296.64116      26097.918      1.2032419
Averages over the last 751 of 1501 rows, steps 75000 to 150000:
Temp Volume Density
373.145 27032.7 1.16171
Loop time of 2228 on 1 procs for 150000 steps with 2988 atoms

unfix			1

fix			1 all npt temp 383 383 1000 iso 1 1 100
run			150000
Generated 153 of 153 mixed pair_coeff terms from geometric mixing rule
Step          Temp          Volume        Density
150000   371.94458      27062.035      1.160375
Averages over the last 751 of 1501 rows, steps 225000 to 300000:
Temp Volume Density
382.594 26918.1 1.16664
Loop time of 2235.14 on 1 procs for 150000 steps with 2988 atoms

unfix			1

fix			1 all npt temp 393 393 1000 iso 1 1 100
run			150000
Generated 153 of 153 mixed pair_coeff terms from geometric mixing rule
Step          Temp          Volume        Density
300000   380.47459      26881.779      1.1681558
Averages over the last 751 of 1501 rows, steps 375000 to 450000:
Temp Volume Density
392.687 26976.7 1.16411
Loop time of 2218.27 on 1 procs for 150000 steps with 2988 atoms

unfix			1

fix			1 all npt temp 403 403 1000 iso 1 1 100
run			150000
Generated 153 of 153 mixed pair_coeff terms from geometric mixing rule
Step          Temp          Volume        Density
450000   394.87357      27021.883      1.1620992
Averages over the last 751 of 1501 rows, steps 525000 to 600000:
Temp Volume Density
404.082 27051 1.16092
Loop time of 2199.28 on 1 procs for 150000 steps with 2988 atoms

unfix			1

fix			1 all npt temp 413 413 1000 iso 1 1 100
run			150000
Generated 153 of 153 mixed pair_coeff terms from geometric mixing rule
Step          Temp          Volume        Density
600000   402.13415      27117.61       1.1579968
Averages over the last 751 of 1501 rows, steps 675000 to 750000:
Temp Volume Density
413.349 27367.1 1.14751
Loop time of 2208.3 on 1 procs for 150000 steps with 2988 atoms

unfix			1
fix			1 all npt temp 423 423 1000 iso 1 1 100
run			150000
Generated 153 of 153 mixed pair_coeff terms from geometric mixing rule
Step          Temp          Volume        Density
750000   415.60029      27526.082      1.1408128
Averages over the last 751 of 1501 rows, steps 825000 to 900000:
Temp Volume Density
422.418 27500 1.14196
Loop time of 2191.29 on 1 procs for 150000 steps with 2988 atoms

unfix			1
fix			1 all npt temp 433 433 1000 iso 1 1 100
run			150000
Generated 153 of 153 mixed pair_coeff terms from geometric mixing rule
Step          Temp          Volume        Density
900000   419.51692      27630.248      1.136512
Averages over the last 751 of 1501 rows, steps 975000 to 1050000:
Temp Volume Density
431.794 27459.1 1.14366
Loop time of 2210.74 on 1 procs for 150000 steps with 2988 atoms

unfix			1
fix			1 all npt temp 443 443 1000 iso 1 1 100
run			150000
Generated 153 of 153 mixed pair_coeff terms from geometric mixing rule
Step          Temp          Volume        Density
1050000   434.95121      27805.999      1.1293285
Averages over the last 751 of 1501 rows, steps 1125000 to 1200000:
Temp Volume Density
442.117 27567.4 1.13919
Loop time of 2207.93 on 1 procs for 150000 steps with 2988 atoms

unfix			1
#final
write_data		thermal_expansion_after_glass_transition.data
System init for write_data ...
Generated 153 of 153 mixed pair_coeff terms from geometric mixing rule

#parameter
neighbor		2.0 binin
ERROR: Illegal neighbor command (src/neighbor.cpp:2444)
Last command: neighbor		2.0 binin
