LAMMPS (15 Sep 2022)
Loaded 1 plugins from C:\Users\IIT\AppData\Local\LAMMPS 64-bit 15Sep2022\plugins
package omp 0
using multi-threaded neighbor list subroutines
package omp 4
set 4 OpenMP thread(s) per MPI task
using multi-threaded neighbor list subroutines
# Initialization
units			real
dimension		3
processors		* * *
boundary		p p p
atom_style		full
pair_style		lj/cut/coul/cut 10.0
bond_style		harmonic
angle_style 	harmonic
dihedral_style  harmonic
read_data		PVA_NP_H2O_INPUT_WITH_CHARGE.data
Reading data file ...
  orthogonal box = (-8.456496 2.851498 -0.849498) to (171.5435 182.8515 179.1505)
  reading atoms ...
  6084 atoms
  reading velocities ...
  6084 velocities
  scanning bonds ...
  scanning angles ...
  scanning dihedrals ...
  reading bonds ...
  6080 bonds
  reading angles ...
  11116 angles
  reading dihedrals ...
  17688 dihedrals
Finding 1-2 1-3 1-4 neighbors ...
     4 = max # of 1-2 neighbors
     7 = max # of 1-3 neighbors
    16 = max # of 1-4 neighbors
    20 = max # of special neighbors

#output

thermo			100
thermo_style	custom step temp pe press vol lx density
#dump			1 all custom 100 before_cross_linking.lammpstrj id type x y z
timestep 1

#initial minimization
minimize                1.0e-5 1.0e-5 10000 10000
Generated 91 of 91 mixed pair_coeff terms from geometric mixing rule
Last active /omp style is dihedral_style harmonic/omp
Step          Temp          PotEng         Press          Volume           Lx          Density
0   0              31000.81      -616.84885      5832000        180            0.011797478
Loop time of 0.420318 on 4 procs for 40 steps with 6084 atoms

Minimization stats:
  Stopping criterion = linesearch alpha is zero
  Energy initial, next-to-last, final =
  Force two-norm initial, final = 5485.568 215.46172
  Force max component initial, final = 1107.7932 36.123521
  Final line search alpha, max atom move = 1.5150629e-13 5.4729408e-12
  Iterations, force evaluations = 40 122

#Intial compression from 0 to 1000 atm
fix                     1 all npt temp 300.0 300.0 100.0 iso 0.0 1000.0 1000.0
#restart                         50000 initialcompression.restart
run                     50000
Generated 91 of 91 mixed pair_coeff terms from geometric mixing rule
Last active /omp style is dihedral_style harmonic/omp
Step          Temp          PotEng         Press          Volume           Lx          Density
40   0              12622.721     -29.544574      5832000        180            0.011797478
Averages over the last 251 of 502 rows, steps 25100 to 50040:
Temp PotEng Press Volume Lx Density
300.277 7574.68 428.59 99615.5 45.8204 0.758548
Loop time of 351.371 on 4 procs for 50000 steps with 6084 atoms

unfix             1

#second minimization
minimize                 1.0e-5 1.0e-5 10000 10000
Generated 91 of 91 mixed pair_coeff terms from geometric mixing rule
Last active /omp style is dihedral_style harmonic/omp
Step          Temp          PotEng         Press          Volume           Lx          Density
50040   301.37962      7388.3669      633.6541       69599.227      41.13405       0.98855831
Loop time of 1.37104 on 4 procs for 18 steps with 6084 atoms

Minimization stats:
  Stopping criterion = linesearch alpha is zero
  Energy initial, next-to-last, final =
  Force two-norm initial, final = 2636.9111 215.97102
  Force max component initial, final = 120.06861 27.53837
  Final line search alpha, max atom move = 2.2322591e-13 6.1472779e-12
  Iterations, force evaluations = 18 103

#Compression from 0 to 4000 atm
fix                              1 all npt temp 300.0 300.0 100.0 iso 0.0 4000.0 1000.0
run                              250000
Generated 91 of 91 mixed pair_coeff terms from geometric mixing rule
Last active /omp style is dihedral_style harmonic/omp
Step          Temp          PotEng         Press          Volume           Lx          Density
50058   301.37962      2340.7954      1748.751       69599.227      41.13405       0.98855831
Averages over the last 1251 of 2502 rows, steps 175100 to 300058:
Temp PotEng Press Volume Lx Density
299.95 6112.61 3000.16 55238.9 38.0833 1.2459
Loop time of 2438.07 on 4 procs for 250000 steps with 6084 atoms

unfix 1

#NpT MD at 4000 atm
fix                              1 all npt temp 300.0 300.0 100.0 iso 4000.0 4000.0 1000.0
run                              200000
Generated 91 of 91 mixed pair_coeff terms from geometric mixing rule
Last active /omp style is dihedral_style harmonic/omp
Step          Temp          PotEng         Press          Volume           Lx          Density
300058   302.70205      6461.8616      4384.6155      53649.552      37.715688      1.2824505
Averages over the last 1001 of 2002 rows, steps 400100 to 500058:
Temp PotEng Press Volume Lx Density
299.708 6086.52 4032.95 52410.7 37.4231 1.31278
Loop time of 2011.33 on 4 procs for 200000 steps with 6084 atoms

unfix 1

#Decompression from 4000 to 1 atm
fix                              1 all npt temp 300.0 300.0 100.0 iso 4000.0 1.0 1000.0
run                              300000
Generated 91 of 91 mixed pair_coeff terms from geometric mixing rule
Last active /omp style is dihedral_style harmonic/omp
Step          Temp          PotEng         Press          Volume           Lx          Density
500058   294.56937      5977.6112      3560.0976      52306.839      37.398383      1.3153709
Averages over the last 1501 of 3002 rows, steps 650100 to 800058:
Temp PotEng Press Volume Lx Density
299.847 5579.67 1022.08 54094.9 37.8195 1.27197
Loop time of 2980.19 on 4 procs for 300000 steps with 6084 atoms

unfix 1

#Heating from 300 K to 500 K at 1 atm
fix                              1 all npt temp 300.0 500.0 100.0 iso 1.0 1.0 1000.0
run                              200000
Generated 91 of 91 mixed pair_coeff terms from geometric mixing rule
Last active /omp style is dihedral_style harmonic/omp
Step          Temp          PotEng         Press          Volume           Lx          Density
800058   294.60607      5283.2024     -205.64188      54567.196      37.929508      1.2608838
Averages over the last 1001 of 2002 rows, steps 900100 to 1000058:
Temp PotEng Press Volume Lx Density
449.826 8549.43 8.25816 56906.5 38.4636 1.20916
Loop time of 1962.45 on 4 procs for 200000 steps with 6084 atoms

unfix 1

#NpT Cooling from 500 K to 300 K at 1 atm
fix                              1 all npt temp 500.0 300.0 100.0 iso 1.0 1.0 1000.0
run                              200000
Generated 91 of 91 mixed pair_coeff terms from geometric mixing rule
Last active /omp style is dihedral_style harmonic/omp
Step          Temp          PotEng         Press          Volume           Lx          Density
1000058   504.32893      10421.47       553.00533      57501.594      38.59757       1.1965389
Averages over the last 1001 of 2002 rows, steps 1100100 to 1200058:
Temp PotEng Press Volume Lx Density
350.12 6592.92 -80.9503 55237.3 38.0838 1.24567
Loop time of 1959.07 on 4 procs for 200000 steps with 6084 atoms

unfix 1

#Compression from 1 to 4000 atm
fix                              1 all npt temp 300.0 300.0 100.0 iso 1.0 4000.0 1000.0
run                              150000
Generated 91 of 91 mixed pair_coeff terms from geometric mixing rule
Last active /omp style is dihedral_style harmonic/omp
Step          Temp          PotEng         Press          Volume           Lx          Density
1200058   299.17571      6141.8557      1266.7951      54329.928      37.874454      1.2663903
Averages over the last 751 of 1502 rows, steps 1275100 to 1350058:
Temp PotEng Press Volume Lx Density
299.841 5781.34 3010.43 52246.7 37.3838 1.31697
Loop time of 1498.49 on 4 procs for 150000 steps with 6084 atoms

unfix 1

#Decompression from 4000 to 1 atm
fix                              1 all npt temp 300.0 300.0 100.0 iso 4000.0 1.0 1000.0
run                              150000
Generated 91 of 91 mixed pair_coeff terms from geometric mixing rule
Last active /omp style is dihedral_style harmonic/omp
Step          Temp          PotEng         Press          Volume           Lx          Density
1350058   291.6007       5512.7427      3413.4988      51677.577      37.247807      1.3313878
Averages over the last 751 of 1502 rows, steps 1425100 to 1500058:
Temp PotEng Press Volume Lx Density
300.014 5615.4 1014.64 53180.5 37.6052 1.29384
Loop time of 1504.22 on 4 procs for 150000 steps with 6084 atoms

unfix 1

#NVT equilibration at 300 K
fix                     2 all nvt temp 300.0 300.0 100.0
#restart                         50000 NVT500.restart
run                     400000
Generated 91 of 91 mixed pair_coeff terms from geometric mixing rule
Last active /omp style is dihedral_style harmonic/omp
Step          Temp          PotEng         Press          Volume           Lx          Density
1500058   294.65584      5362.0189      465.20786      53996.111      37.796724      1.2742194
Averages over the last 2001 of 4002 rows, steps 1700100 to 1900058:
Temp PotEng Press Volume Lx Density
299.936 5510.87 -100.337 53996.1 37.7967 1.27422
Loop time of 3606.28 on 4 procs for 400000 steps with 6084 atoms

unfix           2

#NpT equilibration at 300 K, 1 atm
fix                             5 all npt temp 300.0 300.0 100.0 iso 1.0 1.0 1000.0
#restart                         10000 NpT300.restart
run                     600000
Generated 91 of 91 mixed pair_coeff terms from geometric mixing rule
Last active /omp style is dihedral_style harmonic/omp
Step          Temp          PotEng         Press          Volume           Lx          Density
1900058   302.55477      5665.858       1707.7957      53996.111      37.796724      1.2742194
Averages over the last 3001 of 6002 rows, steps 2200100 to 2500058:
Temp PotEng Press Volume Lx Density
300.06 5535.62 -3.48894 53823.7 37.7564 1.27831
Loop time of 5917.42 on 4 procs for 600000 steps with 6084 atoms

unfix             5

#final
write_data		PVA_NP_H2O_EQUILIBRATED_WITH_CHARGE.data
System init for write_data ...
Generated 91 of 91 mixed pair_coeff terms from geometric mixing rule
Last active /omp style is dihedral_style harmonic/omp

#parameter
neighbor		2.0 bin
