LAMMPS (15 Sep 2022)
Loaded 1 plugins from C:\Users\HP\AppData\Local\LAMMPS 64-bit 15Sep2022\plugins
package omp 0
using multi-threaded neighbor list subroutines
package omp 4
set 4 OpenMP thread(s) per MPI task
using multi-threaded neighbor list subroutines
# Initialization
units			real
dimension		3
processors		* * *
boundary		p p p
atom_style		full
pair_style		lj/cut/coul/cut 10.0
bond_style		harmonic
angle_style 	harmonic
dihedral_style  harmonic
read_data		PVA_GA_NC_OXY_LARGE_DIHEDRALS_INPUT_WITH_CHARGE_AFTER_LINKING.data
Reading data file ...
  orthogonal box = (0.0002 0.002796 -0.00163) to (39.401018 39.403614 39.399188)
  reading atoms ...
  6487 atoms
  reading velocities ...
  6487 velocities
  scanning bonds ...
  scanning angles ...
  scanning dihedrals ...
  reading bonds ...
  6576 bonds
  reading angles ...
  12293 angles
  reading dihedrals ...
  19554 dihedrals
Finding 1-2 1-3 1-4 neighbors ...
     4 = max # of 1-2 neighbors
     7 = max # of 1-3 neighbors
    16 = max # of 1-4 neighbors
    20 = max # of special neighbors

thermo			100
thermo_style	custom step temp pe evdwl ecoul edihed press vol lx density

timestep 1

#intial minimization
minimize		1.0e-5 1.0e-5 10000 10000
Generated 231 of 231 mixed pair_coeff terms from geometric mixing rule
Last active /omp style is dihedral_style harmonic/omp
Step          Temp          PotEng         E_vdwl         E_coul        E_dihed         Press          Volume           Lx          Density
0   0              497054.37     -3047.3486      0              1514.6012     -524812.09      61166.794      39.400818      1.212294
Averages over the last 14 of 27 rows, steps 1300 to 2594:
Temp PotEng E_vdwl E_coul E_dihed Press Volume Lx Density
0 -1374.08 -3637.27 0 1154.67 -535.187 61166.8 39.4008 1.21229
Loop time of 153.661 on 4 procs for 2594 steps with 6487 atoms

Minimization stats:
  Stopping criterion = energy tolerance
  Energy initial, next-to-last, final =
  Force two-norm initial, final = 41947.222 5.8614996
  Force max component initial, final = 4892.1557 1.0123399
  Final line search alpha, max atom move = 0.02047556 0.020728227
  Iterations, force evaluations = 2594 5105

# nvt for 200 ps
fix			1 all nvt temp 300 300 100
run			150000
Generated 231 of 231 mixed pair_coeff terms from geometric mixing rule
Last active /omp style is dihedral_style harmonic/omp
Step          Temp          PotEng         E_vdwl         E_coul        E_dihed         Press          Volume           Lx          Density
2594   0             -1400.9597     -3644.9884      0              1152.001      -512.03099      61166.794      39.400818      1.212294
Averages over the last 751 of 1502 rows, steps 77600 to 152594:
Temp PotEng E_vdwl E_coul E_dihed Press Volume Lx Density
300.236 3910.74 -3393.26 0 1566.28 532.44 61166.8 39.4008 1.21229
Loop time of 2744.99 on 4 procs for 150000 steps with 6487 atoms

unfix			1

# npt for 1000ps
fix			1 all npt temp 300 300 100 iso 1 1 100
run			500000
Generated 231 of 231 mixed pair_coeff terms from geometric mixing rule
Last active /omp style is dihedral_style harmonic/omp
Step          Temp          PotEng         E_vdwl         E_coul        E_dihed         Press          Volume           Lx          Density
152594   299.96352      3816.9874     -3387.9343      0              1548.7013      409.89477      61166.794      39.400818      1.212294
Averages over the last 2501 of 5002 rows, steps 402600 to 652594:
Temp PotEng E_vdwl E_coul E_dihed Press Volume Lx Density
299.981 3689.76 -3424.75 0 1484.31 0.200877 61545.3 39.4818 1.20486
Loop time of 12237 on 4 procs for 500000 steps with 6487 atoms

unfix			1
#final
write_data		PVA_GA_NC_OXY_LARGE_DIHEDRALS_EQUILIBRATED_WITH_CHARGE_AFTER_LINKING.data
System init for write_data ...
Generated 231 of 231 mixed pair_coeff terms from geometric mixing rule
Last active /omp style is dihedral_style harmonic/omp

#parameter
neighbor		2.0 bin
