LAMMPS (15 Sep 2022)
Loaded 1 plugins from C:\Users\HP\AppData\Local\LAMMPS 64-bit 15Sep2022\plugins
package omp 0
using multi-threaded neighbor list subroutines
package omp 4
set 4 OpenMP thread(s) per MPI task
using multi-threaded neighbor list subroutines
# Initialization
units			real
dimension		3
processors		* * *
boundary		p p p
atom_style		full
pair_style		lj/cut/coul/cut 10.0
bond_style		harmonic
angle_style 	harmonic
dihedral_style  harmonic
read_data		temp.data
Reading data file ...
  orthogonal box = (0.0002 0.002796 -0.00163) to (39.401018 39.403614 39.399188)
  reading atoms ...
  6487 atoms
  reading velocities ...
  6487 velocities
  scanning bonds ...
  scanning angles ...
  scanning dihedrals ...
  reading bonds ...
  6576 bonds
  reading angles ...
  12293 angles
  reading dihedrals ...
  19554 dihedrals
Finding 1-2 1-3 1-4 neighbors ...
     4 = max # of 1-2 neighbors
     7 = max # of 1-3 neighbors
    16 = max # of 1-4 neighbors
    20 = max # of special neighbors

thermo			100
thermo_style	custom step temp pe evdwl ecoul edihed press vol lx density

timestep 1

#intial minimization
minimize		1.0e-5 1.0e-5 10000 10000
Generated 231 of 231 mixed pair_coeff terms from geometric mixing rule
Last active /omp style is dihedral_style harmonic/omp
Step          Temp          PotEng         E_vdwl         E_coul        E_dihed         Press          Volume           Lx          Density
0   0              499071.65     -3047.356       2019.1044      1514.5978     -524056.44      61166.794      39.400818      1.212294
Loop time of 4.75254 on 4 procs for 73 steps with 6487 atoms

Minimization stats:
  Stopping criterion = linesearch alpha is zero
  Energy initial, next-to-last, final =
  Force two-norm initial, final = 41968.844 293.54517
  Force max component initial, final = 4891.5797 39.597679
  Final line search alpha, max atom move = 8.3339451e-14 3.3000489e-12
  Iterations, force evaluations = 73 156

# nvt for 200 ps
fix			1 all nvt temp 300 300 100
run			150000
Generated 231 of 231 mixed pair_coeff terms from geometric mixing rule
Last active /omp style is dihedral_style harmonic/omp
Step          Temp          PotEng         E_vdwl         E_coul        E_dihed         Press          Volume           Lx          Density
73   0              8863.5176     -2712.389       1939.1983      1609.4063     -16053.757      61166.794      39.400818      1.212294
Averages over the last 751 of 1502 rows, steps 75100 to 150073:
Temp PotEng E_vdwl E_coul E_dihed Press Volume Lx Density
300.244 6852.29 -2826.7 1638.38 1635.22 -367.645 61166.8 39.4008 1.21229
Loop time of 2563.59 on 4 procs for 150000 steps with 6487 atoms

unfix			1

# npt for 1000ps
fix			1 all npt temp 300 300 100 iso 1 1 100
run			500000
Generated 231 of 231 mixed pair_coeff terms from geometric mixing rule
Last active /omp style is dihedral_style harmonic/omp
Step          Temp          PotEng         E_vdwl         E_coul        E_dihed         Press          Volume           Lx          Density
150073   301.44463      6252.248      -2857.7661      997.42744      1654.8383     -1312.7754      61166.794      39.400818      1.212294
Averages over the last 2501 of 5002 rows, steps 400100 to 650073:
Temp PotEng E_vdwl E_coul E_dihed Press Volume Lx Density
300.033 6681.75 -2886.45 1517.93 1612.13 -18.0014 60484.1 39.2536 1.22599
Loop time of 8805.77 on 4 procs for 500000 steps with 6487 atoms

unfix			1
#final
write_data		PVA_GA_NC_OXY_LARGE_DIHEDRALS_EQUILIBRATED_WITH_PREV_CHARGE_AFTER_LINKING.data
System init for write_data ...
Generated 231 of 231 mixed pair_coeff terms from geometric mixing rule
Last active /omp style is dihedral_style harmonic/omp

#parameter
neighbor		2.0 bin
