LAMMPS (23 Jun 2022 - Update 1)
Loaded 1 plugins from C:\Users\HP\AppData\Local\LAMMPS 64-bit 23Jun2022\plugins
# Initialization
units			real
dimension		3
processors		* * *
boundary		p p p
atom_style		full
pair_style		lj/cut 10.0
bond_style		harmonic
angle_style 	harmonic
read_data		after_cross_linking_correct.data
Reading data file ...
  orthogonal box = (30.222448 27.307948 30.19145) to (59.884552 56.970052 59.853554)
  reading atoms ...
  2988 atoms
  reading velocities ...
  2988 velocities
  scanning bonds ...
  scanning angles ...
  reading bonds ...
  3044 bonds
  reading angles ...
  5800 angles
Finding 1-2 1-3 1-4 neighbors ...
     4 = max # of 1-2 neighbors
     7 = max # of 1-3 neighbors
    16 = max # of 1-4 neighbors
    20 = max # of special neighbors

#output

# mp of PVA 220-230 so going till 200

thermo			100
thermo_style	custom step temp pe press vol lx density
dump			1 all custom 100 thermal_200ps.lammpstrj id type x y z

# npt for 100ps
fix			1 all npt temp 273 273 1000 iso 1 1 100
run			200000
Generated 153 of 153 mixed pair_coeff terms from geometric mixing rule
  update every 1 steps, delay 10 steps, check yes
Step          Temp          PotEng         Press          Volume           Lx          Density
0   296.64116      1290.9831      773.52109      26097.918      29.662104      1.2032419
Averages over the last 1001 of 2001 rows, steps 100000 to 200000:
Temp PotEng Press Volume Lx Density
272.589 1010.71 15.8002 25891.5 29.5836 1.21287
Loop time of 3298.39 on 1 procs for 200000 steps with 2988 atoms

unfix			1

fix			1 all npt temp 323 323 1000 iso 1 1 100
run			200000
Generated 153 of 153 mixed pair_coeff terms from geometric mixing rule
Step          Temp          PotEng         Press          Volume           Lx          Density
200000   263.56529      1000.9686      149.26639      26007.242      29.627711      1.2074371
Averages over the last 1001 of 2001 rows, steps 300000 to 400000:
Temp PotEng Press Volume Lx Density
322.575 1480.1 -57.7943 26532.2 29.8256 1.1836
Loop time of 3233.69 on 1 procs for 200000 steps with 2988 atoms

unfix			1

fix			1 all npt temp 373 373 1000 iso 1 1 100
run			200000
Generated 153 of 153 mixed pair_coeff terms from geometric mixing rule
Step          Temp          PotEng         Press          Volume           Lx          Density
400000   324.47596      1475.1986     -163.83431      26693.686      29.886119      1.1763871
Averages over the last 1001 of 2001 rows, steps 500000 to 600000:
Temp PotEng Press Volume Lx Density
372.908 1944.73 15.7922 26998.2 29.9992 1.16318
Loop time of 3151.59 on 1 procs for 200000 steps with 2988 atoms

unfix			1

fix			1 all npt temp 423 423 1000 iso 1 1 100
run			200000
Generated 153 of 153 mixed pair_coeff terms from geometric mixing rule
Step          Temp          PotEng         Press          Volume           Lx          Density
600000   370.52628      2010.4125     -2363.5001      26978.942      29.992199      1.1639488
Averages over the last 1001 of 2001 rows, steps 700000 to 800000:
Temp PotEng Press Volume Lx Density
423.371 2423.32 -37.2206 27442.4 30.1627 1.14438
Loop time of 3205.92 on 1 procs for 200000 steps with 2988 atoms

unfix			1

fix			1 all npt temp 473 473 100 iso 1 1 100
run			200000
Generated 153 of 153 mixed pair_coeff terms from geometric mixing rule
Step          Temp          PotEng         Press          Volume           Lx          Density
800000   411.54363      2313.8301      2670.6949      27368.725      30.135948      1.1473719
Averages over the last 1001 of 2001 rows, steps 900000 to 1000000:
Temp PotEng Press Volume Lx Density
473.153 2873.35 23.1362 27415.4 30.1528 1.14549
Loop time of 3167.41 on 1 procs for 200000 steps with 2988 atoms

unfix			1
#final
write_data		thermal_expansion_200ps.data
System init for write_data ...
Generated 153 of 153 mixed pair_coeff terms from geometric mixing rule

#parameter
neighbor		2.0 bin
