LAMMPS (23 Jun 2022 - Update 1)
Loaded 1 plugins from C:\Users\HP\AppData\Local\LAMMPS 64-bit 23Jun2022\plugins
package omp 0
using multi-threaded neighbor list subroutines
package omp 4
set 4 OpenMP thread(s) per MPI task
using multi-threaded neighbor list subroutines
# Initialization
units			real
dimension		3
processors		* * *
boundary		p p p
atom_style		full
pair_style		lj/cut 10.0
bond_style		harmonic
angle_style 	harmonic
read_data		crosslinked.data
Reading data file ...
  orthogonal box = (29.738884 26.824384 29.707886) to (60.368116 57.453616 60.337118)
  reading atoms ...
  2988 atoms
  scanning bonds ...
  scanning angles ...
  reading bonds ...
  3044 bonds
  reading angles ...
  5800 angles
Finding 1-2 1-3 1-4 neighbors ...
     4 = max # of 1-2 neighbors
     7 = max # of 1-3 neighbors
    16 = max # of 1-4 neighbors
    20 = max # of special neighbors

#output

thermo			100
thermo_style	custom step temp pe press vol lx density

#intial minimization
minimize		1.0e-5 1.0e-5 10000 10000
Generated 153 of 153 mixed pair_coeff terms from geometric mixing rule
Last active /omp style is angle_style harmonic/omp
  update every 1 steps, delay 0 steps, check yes
Step          Temp          PotEng         Press          Volume           Lx          Density
0   0              245142.64     -567829.91      28734.809      30.629232      1.0928246
Averages over the last 9 of 18 rows, steps 900 to 1692:
Temp PotEng Press Volume Lx Density
0 -924.668 -2993.97 28734.8 30.6292 1.09282
Loop time of 30.8102 on 4 procs for 1692 steps with 2988 atoms

Minimization stats:
  Stopping criterion = energy tolerance
  Energy initial, next-to-last, final =
  Force two-norm initial, final = 28134.695 4.1719572
  Force max component initial, final = 4144.4888 1.1161888
  Final line search alpha, max atom move = 0.027303969 0.030476385
  Iterations, force evaluations = 1692 3292

timestep 1
# nvt for 500 ps
fix			1 all nvt temp 300 300 100
run			500000
Generated 153 of 153 mixed pair_coeff terms from geometric mixing rule
Last active /omp style is angle_style harmonic/omp
Step          Temp          PotEng         Press          Volume           Lx          Density
1692   0             -937.95425     -3000.6516      28734.809      30.629232      1.0928246
Averages over the last 2501 of 5002 rows, steps 251700 to 501692:
Temp PotEng Press Volume Lx Density
300.086 1405.36 -2029.17 28734.8 30.6292 1.09282
Loop time of 2964 on 4 procs for 500000 steps with 2988 atoms

unfix			1

# npt for 250ps
fix			1 all npt temp 300 300 100 iso 1 1 100
run			500000
Generated 153 of 153 mixed pair_coeff terms from geometric mixing rule
Last active /omp style is angle_style harmonic/omp
Step          Temp          PotEng         Press          Volume           Lx          Density
501692   298.71397      1396.1039     -3218.3335      28734.809      30.629232      1.0928246
Averages over the last 2501 of 5002 rows, steps 751700 to 1001692:
Temp PotEng Press Volume Lx Density
299.876 1218.98 -5.13637 26056.4 29.6462 1.20521
Loop time of 4124.61 on 4 procs for 500000 steps with 2988 atoms

unfix			1
#final

#parameter
neighbor		2.0 bin
