LAMMPS (23 Jun 2022 - Update 1)
Loaded 1 plugins from C:\Users\HP\AppData\Local\LAMMPS 64-bit 23Jun2022\plugins
# Initialization
units			real
dimension		3
processors		* * *
boundary		p p p
atom_style		full
pair_style		lj/cut 10.0
bond_style		harmonic
angle_style 	harmonic
read_data		crosslinked.data
Reading data file ...
  orthogonal box = (29.738884 26.824384 29.707886) to (60.368116 57.453616 60.337118)
  reading atoms ...
  2988 atoms
  scanning bonds ...
  scanning angles ...
  reading bonds ...
  3044 bonds
  reading angles ...
  5800 angles
Finding 1-2 1-3 1-4 neighbors ...
     4 = max # of 1-2 neighbors
     7 = max # of 1-3 neighbors
    16 = max # of 1-4 neighbors
    20 = max # of special neighbors

#output

thermo			100
thermo_style	custom step temp pe press vol lx density
dump			1 all custom 100 after_cross_linking_correctm.lammpstrj id type x y z

#intial minimization
minimize		1.0e-5 1.0e-5 10000 10000
Generated 153 of 153 mixed pair_coeff terms from geometric mixing rule
  update every 1 steps, delay 0 steps, check yes
Step          Temp          PotEng         Press          Volume           Lx          Density
0   0              245142.64     -567829.91      28734.809      30.629232      1.0928246
Averages over the last 9 of 18 rows, steps 900 to 1651:
Temp PotEng Press Volume Lx Density
0 -930.943 -3307.79 28734.8 30.6292 1.09282
Loop time of 96.8226 on 1 procs for 1651 steps with 2988 atoms

Minimization stats:
  Stopping criterion = energy tolerance
  Energy initial, next-to-last, final =
  Force two-norm initial, final = 28134.695 4.1557683
  Force max component initial, final = 4144.4888 0.71218274
  Final line search alpha, max atom move = 0.019603931 0.013961581
  Iterations, force evaluations = 1651 3211

timestep 1
# nvt for 500 ps
fix			1 all nvt temp 300 300 100
run			500000
Generated 153 of 153 mixed pair_coeff terms from geometric mixing rule
Step          Temp          PotEng         Press          Volume           Lx          Density
1651   0             -943.1009      -3419.715       28734.809      30.629232      1.0928246
Averages over the last 2501 of 5002 rows, steps 251700 to 501651:
Temp PotEng Press Volume Lx Density
300.21 1406.62 -1639.49 28734.8 30.6292 1.09282
Loop time of 9568.72 on 1 procs for 500000 steps with 2988 atoms

unfix			1

# npt for 250ps
fix			1 all npt temp 300 300 100 iso 1 1 100
run			250000
Generated 153 of 153 mixed pair_coeff terms from geometric mixing rule
Step          Temp          PotEng         Press          Volume           Lx          Density
501651   305.36128      1350.0128     -972.86868      28734.809      30.629232      1.0928246
Averages over the last 1251 of 2502 rows, steps 626700 to 751651:
Temp PotEng Press Volume Lx Density
299.95 1295.95 -48.6606 26405.2 29.7778 1.18933
Loop time of 4972.32 on 1 procs for 250000 steps with 2988 atoms

unfix			1
#final
write_data		after_cross_linking_correctm.data
System init for write_data ...
Generated 153 of 153 mixed pair_coeff terms from geometric mixing rule

#parameter
neighbor		2.0 bin
