LAMMPS (23 Jun 2022 - Update 1)
Loaded 1 plugins from C:\Users\divy\AppData\Local\LAMMPS 64-bit 23Jun2022\plugins
package omp 0
using multi-threaded neighbor list subroutines
package omp 4
set 4 OpenMP thread(s) per MPI task
using multi-threaded neighbor list subroutines
# Initialization
units			real
dimension		3
processors		* * *
boundary		p p p
atom_style		full
pair_style		lj/cut 10.0
bond_style		harmonic
angle_style 	harmonic
read_data		no_link_minimize.data
Reading data file ...
  orthogonal box = (30.550832 28.973835 30.392336) to (59.833162 58.256165 59.674666)
  reading atoms ...
  2808 atoms
  reading velocities ...
  2808 velocities
  scanning bonds ...
  scanning angles ...
  reading bonds ...
  2804 bonds
  reading angles ...
  5200 angles
Finding 1-2 1-3 1-4 neighbors ...
     4 = max # of 1-2 neighbors
     7 = max # of 1-3 neighbors
    14 = max # of 1-4 neighbors
    18 = max # of special neighbors

#output

# going from 100-170 in steps of 10

thermo			100
thermo_style	custom step temp vol density

# npt for 150ps

fix			1 all npt temp 373 373 1000 iso 1 1 100
run			150000
Generated 36 of 36 mixed pair_coeff terms from geometric mixing rule
Last active /omp style is angle_style harmonic/omp
  update every 1 steps, delay 10 steps, check yes
Step          Temp          Volume        Density
0   301.96869      25108.276      1.1659018
Averages over the last 751 of 1501 rows, steps 75000 to 150000:
Temp Volume Density
372.762 26001.2 1.12596
Loop time of 609.766 on 4 procs for 150000 steps with 2808 atoms

unfix			1

fix			1 all npt temp 383 383 1000 iso 1 1 100
run			150000
Generated 36 of 36 mixed pair_coeff terms from geometric mixing rule
Last active /omp style is angle_style harmonic/omp
Step          Temp          Volume        Density
150000   364.56684      25869.579      1.1315911
Averages over the last 751 of 1501 rows, steps 225000 to 300000:
Temp Volume Density
383.809 26301.1 1.11313
Loop time of 592.079 on 4 procs for 150000 steps with 2808 atoms

unfix			1

fix			1 all npt temp 393 393 1000 iso 1 1 100
run			150000
Generated 36 of 36 mixed pair_coeff terms from geometric mixing rule
Last active /omp style is angle_style harmonic/omp
Step          Temp          Volume        Density
300000   387.83937      26535.015      1.1032135
Averages over the last 751 of 1501 rows, steps 375000 to 450000:
Temp Volume Density
392.01 26574.8 1.10169
Loop time of 585.917 on 4 procs for 150000 steps with 2808 atoms

unfix			1

fix			1 all npt temp 403 403 1000 iso 1 1 100
run			150000
Generated 36 of 36 mixed pair_coeff terms from geometric mixing rule
Last active /omp style is angle_style harmonic/omp
Step          Temp          Volume        Density
450000   391.82418      26920.303      1.0874241
Averages over the last 751 of 1501 rows, steps 525000 to 600000:
Temp Volume Density
402.351 26847.4 1.0905
Loop time of 576.039 on 4 procs for 150000 steps with 2808 atoms

unfix			1

fix			1 all npt temp 413 413 1000 iso 1 1 100
run			150000
Generated 36 of 36 mixed pair_coeff terms from geometric mixing rule
Last active /omp style is angle_style harmonic/omp
Step          Temp          Volume        Density
600000   400.39161      27243.323      1.0745307
Averages over the last 751 of 1501 rows, steps 675000 to 750000:
Temp Volume Density
412.205 26853.2 1.09028
Loop time of 573.402 on 4 procs for 150000 steps with 2808 atoms

unfix			1

fix			1 all npt temp 423 423 1000 iso 1 1 100
run			150000
Generated 36 of 36 mixed pair_coeff terms from geometric mixing rule
Last active /omp style is angle_style harmonic/omp
Step          Temp          Volume        Density
750000   409.89272      26873.943      1.0893
Averages over the last 751 of 1501 rows, steps 825000 to 900000:
Temp Volume Density
422.523 27322.1 1.07165
Loop time of 560.018 on 4 procs for 150000 steps with 2808 atoms

unfix			1

fix			1 all npt temp 433 433 1000 iso 1 1 100
run			150000
Generated 36 of 36 mixed pair_coeff terms from geometric mixing rule
Last active /omp style is angle_style harmonic/omp
Step          Temp          Volume        Density
900000   416.59194      26793.38       1.0925753
Averages over the last 751 of 1501 rows, steps 975000 to 1050000:
Temp Volume Density
433.125 27395.7 1.06877
Loop time of 558.229 on 4 procs for 150000 steps with 2808 atoms

unfix			1

fix			1 all npt temp 443 443 1000 iso 1 1 100
run			150000
Generated 36 of 36 mixed pair_coeff terms from geometric mixing rule
Last active /omp style is angle_style harmonic/omp
Step          Temp          Volume        Density
1050000   424.70895      27267.369      1.0735831
Averages over the last 751 of 1501 rows, steps 1125000 to 1200000:
Temp Volume Density
441.92 27301.5 1.07242
Loop time of 557.776 on 4 procs for 150000 steps with 2808 atoms

unfix			1

#final
write_data		thermal_expansion_after_glass_transition_no_link.data
System init for write_data ...
Generated 36 of 36 mixed pair_coeff terms from geometric mixing rule
Last active /omp style is angle_style harmonic/omp

#parameter
neighbor		2.0 bin
