LAMMPS (23 Jun 2022 - Update 1)
Loaded 1 plugins from C:\Users\divy\AppData\Local\LAMMPS 64-bit 23Jun2022\plugins
package omp 0
using multi-threaded neighbor list subroutines
package omp 4
set 4 OpenMP thread(s) per MPI task
using multi-threaded neighbor list subroutines
# Initialization
units			real
dimension		3
processors		* * *
boundary		p p p
atom_style		full
pair_style		lj/cut 10.0
bond_style		harmonic
angle_style 	harmonic
read_data		no_link_minimize.data
Reading data file ...
  orthogonal box = (30.550832 28.973835 30.392336) to (59.833162 58.256165 59.674666)
  reading atoms ...
  2808 atoms
  reading velocities ...
  2808 velocities
  scanning bonds ...
  scanning angles ...
  reading bonds ...
  2804 bonds
  reading angles ...
  5200 angles
Finding 1-2 1-3 1-4 neighbors ...
     4 = max # of 1-2 neighbors
     7 = max # of 1-3 neighbors
    14 = max # of 1-4 neighbors
    18 = max # of special neighbors

#output

# going from 0-70 in steps of 10

thermo			100
thermo_style	custom step temp vol density

# npt for 150ps
fix			1 all npt temp 273 273 1000 iso 1 1 100
run			150000
Generated 36 of 36 mixed pair_coeff terms from geometric mixing rule
Last active /omp style is angle_style harmonic/omp
  update every 1 steps, delay 10 steps, check yes
Step          Temp          Volume        Density
0   301.96869      25108.276      1.1659018
Averages over the last 751 of 1501 rows, steps 75000 to 150000:
Temp Volume Density
274.117 24605.1 1.1898
Loop time of 641.168 on 4 procs for 150000 steps with 2808 atoms

unfix			1

fix			1 all npt temp 283 283 1000 iso 1 1 100
run			150000
Generated 36 of 36 mixed pair_coeff terms from geometric mixing rule
Last active /omp style is angle_style harmonic/omp
Step          Temp          Volume        Density
150000   269.88111      24653.026      1.1874318
Averages over the last 751 of 1501 rows, steps 225000 to 300000:
Temp Volume Density
282.914 24677.9 1.18629
Loop time of 613.843 on 4 procs for 150000 steps with 2808 atoms

unfix			1

fix			1 all npt temp 293 293 1000 iso 1 1 100
run			150000
Generated 36 of 36 mixed pair_coeff terms from geometric mixing rule
Last active /omp style is angle_style harmonic/omp
Step          Temp          Volume        Density
300000   284.69127      24660.19       1.1870868
Averages over the last 751 of 1501 rows, steps 375000 to 450000:
Temp Volume Density
292.8 24771.7 1.1818
Loop time of 610.046 on 4 procs for 150000 steps with 2808 atoms

unfix			1

fix			1 all npt temp 303 303 1000 iso 1 1 100
run			150000
Generated 36 of 36 mixed pair_coeff terms from geometric mixing rule
Last active /omp style is angle_style harmonic/omp
Step          Temp          Volume        Density
450000   285.46746      24902.594      1.1755316
Averages over the last 751 of 1501 rows, steps 525000 to 600000:
Temp Volume Density
303.895 25036.8 1.16929
Loop time of 607.333 on 4 procs for 150000 steps with 2808 atoms

unfix			1

fix			1 all npt temp 313 313 100 iso 1 1 100
run			150000
Generated 36 of 36 mixed pair_coeff terms from geometric mixing rule
Last active /omp style is angle_style harmonic/omp
Step          Temp          Volume        Density
600000   306.37252      25182.537      1.1624637
Averages over the last 751 of 1501 rows, steps 675000 to 750000:
Temp Volume Density
313.124 25204.1 1.16154
Loop time of 607.178 on 4 procs for 150000 steps with 2808 atoms

unfix			1
fix			1 all npt temp 323 323 100 iso 1 1 100
run			150000
Generated 36 of 36 mixed pair_coeff terms from geometric mixing rule
Last active /omp style is angle_style harmonic/omp
Step          Temp          Volume        Density
750000   309.72643      25489.968      1.1484434
Averages over the last 751 of 1501 rows, steps 825000 to 900000:
Temp Volume Density
322.811 25272.4 1.1584
Loop time of 603.827 on 4 procs for 150000 steps with 2808 atoms

unfix			1
fix			1 all npt temp 333 333 100 iso 1 1 100
run			150000
Generated 36 of 36 mixed pair_coeff terms from geometric mixing rule
Last active /omp style is angle_style harmonic/omp
Step          Temp          Volume        Density
900000   318.63326      25363.198      1.1541836
Averages over the last 751 of 1501 rows, steps 975000 to 1050000:
Temp Volume Density
332.699 25409.8 1.15216
Loop time of 609.088 on 4 procs for 150000 steps with 2808 atoms

unfix			1
fix			1 all npt temp 343 343 100 iso 1 1 100
run			150000
Generated 36 of 36 mixed pair_coeff terms from geometric mixing rule
Last active /omp style is angle_style harmonic/omp
Step          Temp          Volume        Density
1050000   334.6378       25548.33       1.1458199
Averages over the last 751 of 1501 rows, steps 1125000 to 1200000:
Temp Volume Density
342.993 25724.8 1.13804
Loop time of 604.908 on 4 procs for 150000 steps with 2808 atoms

unfix			1
#final
write_data		thermal_expansion_before_glass_transition_no_link.data
System init for write_data ...
Generated 36 of 36 mixed pair_coeff terms from geometric mixing rule
Last active /omp style is angle_style harmonic/omp

#parameter
neighbor		2.0 bin
