LAMMPS (23 Jun 2022 - Update 1)
Loaded 1 plugins from C:\Users\divy\AppData\Local\LAMMPS 64-bit 23Jun2022\plugins
package omp 0
using multi-threaded neighbor list subroutines
package omp 4
set 4 OpenMP thread(s) per MPI task
using multi-threaded neighbor list subroutines
# Initialization
units			real
dimension		3
processors		* * *
boundary		p p p
atom_style		full
pair_style		lj/cut 10.0
bond_style		harmonic
angle_style 	harmonic
read_data		PVA_4.data
Reading data file ...
  orthogonal box = (-4.808003 -6.385 -4.966499) to (95.191997 93.615 95.033501)
  reading atoms ...
  2808 atoms
  scanning bonds ...
  scanning angles ...
  reading bonds ...
  2804 bonds
  reading angles ...
  5200 angles
Finding 1-2 1-3 1-4 neighbors ...
     4 = max # of 1-2 neighbors
     7 = max # of 1-3 neighbors
    14 = max # of 1-4 neighbors
    18 = max # of special neighbors

#output

thermo			100
thermo_style	custom step temp pe press vol lx density
dump			1 all custom 100 no_link.lammpstrj id type x y z

#intial minimization
minimize		1.0e-5 1.0e-5 10000 10000
Generated 36 of 36 mixed pair_coeff terms from geometric mixing rule
Last active /omp style is angle_style harmonic/omp
  update every 1 steps, delay 0 steps, check yes
Step          Temp          PotEng         Press          Volume           Lx          Density
0   0              2254.918      -495.94408      1000000        100            0.029273786
Averages over the last 26 of 51 rows, steps 2500 to 4999:
Temp PotEng Press Volume Lx Density
0 -491.931 -4.31695 1e+06 100 0.0292738
Loop time of 13.371 on 4 procs for 4999 steps with 2808 atoms

Minimization stats:
  Stopping criterion = max force evaluations
  Energy initial, next-to-last, final =
  Force two-norm initial, final = 1832.0911 6.8880075
  Force max component initial, final = 129.34325 1.0531066
  Final line search alpha, max atom move = 0.011827467 0.012455584
  Iterations, force evaluations = 4999 10000

timestep 1
# nvt for 200 ps
fix			1 all nvt temp 300 300 100
run			200000
Generated 36 of 36 mixed pair_coeff terms from geometric mixing rule
Last active /omp style is angle_style harmonic/omp
Step          Temp          PotEng         Press          Volume           Lx          Density
4999   0             -568.84496     -4.1192352      1000000        100            0.029273786
Averages over the last 1001 of 2002 rows, steps 105000 to 204999:
Temp PotEng Press Volume Lx Density
299.861 1158.95 -2.33394 1e+06 100 0.0292738
Loop time of 563.077 on 4 procs for 200000 steps with 2808 atoms

unfix			1

# npt for 1000ps
fix			1 all npt temp 300 300 100 iso 1 1 100
run			1000000
Generated 36 of 36 mixed pair_coeff terms from geometric mixing rule
Last active /omp style is angle_style harmonic/omp
Step          Temp          PotEng         Press          Volume           Lx          Density
204999   304.87808      1169.9109     -20.639182      1000000        100            0.029273786
Averages over the last 5001 of 10002 rows, steps 705000 to 1204999:
Temp PotEng Press Volume Lx Density
300.183 748.263 0.953985 25061.7 29.264 1.16816
Loop time of 4284.04 on 4 procs for 1000000 steps with 2808 atoms

unfix			1
#final
write_data		no_link_minimize.data
System init for write_data ...
Generated 36 of 36 mixed pair_coeff terms from geometric mixing rule
Last active /omp style is angle_style harmonic/omp

#parameter
neighbor		2.0 bin
