units			real
dimension		3
processors		* * *
boundary		p p p
atom_style		full
pair_style		lj/cut 10.0
bond_style		harmonic
angle_style 	harmonic
read_data		PVA4_O2_GA_partial_linked.data
Reading data file ...
  orthogonal box = (29.685141 28.667642 29.457643) to (60.270857 59.253358 60.043359)
  reading atoms ...
  3092 atoms
  scanning bonds ...
  scanning angles ...
  reading bonds ...
  3101 bonds
  reading angles ...
  5792 angles
Finding 1-2 1-3 1-4 neighbors ...
     4 = max # of 1-2 neighbors
     7 = max # of 1-3 neighbors
    16 = max # of 1-4 neighbors
    20 = max # of special neighbors

#output

thermo			100
thermo_style	custom step temp pe press vol lx density

#intial minimization
minimize		1.0e-5 1.0e-5 10000 10000
Generated 171 of 171 mixed pair_coeff terms from geometric mixing rule
Last active /omp style is angle_style harmonic/omp
  update every 1 steps, delay 0 steps, check yes
Step          Temp          PotEng         Press          Volume           Lx          Density
0   0              156462.07     -362345.86      28612.509      30.585716      1.1453411
Averages over the last 7 of 14 rows, steps 700 to 1254:
Temp PotEng Press Volume Lx Density
0 -1561.63 -3628.5 28612.5 30.5857 1.14534
Loop time of 29.6768 on 4 procs for 1254 steps with 3092 atoms

Minimization stats:
  Stopping criterion = energy tolerance
  Energy initial, next-to-last, final =
  Force two-norm initial, final = 23721.064 6.3965312
  Force max component initial, final = 4307.6002 2.4575734
  Final line search alpha, max atom move = 0.010121917 0.024875354
  Iterations, force evaluations = 1254 2460

timestep 1
# nvt for 200 ps
fix			1 all nvt temp 300 300 100
run			200000
Generated 171 of 171 mixed pair_coeff terms from geometric mixing rule
Last active /omp style is angle_style harmonic/omp
Step          Temp          PotEng         Press          Volume           Lx          Density
1254   0             -1571.0631     -3500.9621      28612.509      30.585716      1.1453411
Averages over the last 1001 of 2002 rows, steps 101300 to 201254:
Temp PotEng Press Volume Lx Density
299.958 968.659 -446.842 28612.5 30.5857 1.14534
Loop time of 1272.55 on 4 procs for 200000 steps with 3092 atoms

unfix			1

# npt for 1000ps
fix			1 all npt temp 300 300 100 iso 1 1 100
run			1000000
Generated 171 of 171 mixed pair_coeff terms from geometric mixing rule
Last active /omp style is angle_style harmonic/omp
Step          Temp          PotEng         Press          Volume           Lx          Density
201254   299.08714      971.41845     -1041.6917      28612.509      30.585716      1.1453411
Averages over the last 5001 of 10002 rows, steps 701300 to 1201254:
Temp PotEng Press Volume Lx Density
299.899 861.769 -11.9597 27671.5 30.2465 1.18435
Loop time of 6746.61 on 4 procs for 1000000 steps with 3092 atoms

unfix			1
#final
write_data		PVA4_O2_GA_partial_linked_equilibrated.data
System init for write_data ...
Generated 171 of 171 mixed pair_coeff terms from geometric mixing rule
Last active /omp style is angle_style harmonic/omp

#parameter
neighbor		2.0 bin
